* An example for a simple memristor-based nonvolatile memory crossbar
* C:\Users\PC-Admin\OneDrive - Technical University of Sofia\Documents\LTspiceXVII\lib\sym\AutoGenerated\Draft26.asc
XU43 N006 N001 N011 A10
XU44 N007 N002 N012 A10
XU45 N008 N003 N013 A10
XU46 N009 N004 N014 A10
XU47 N010 N005 N015 A10
XU49 N017 N001 N022 A10
XU50 N018 N002 N023 A10
XU51 N019 N003 N024 A10
XU52 N020 N004 N025 A10
XU53 N021 N005 N026 A10
XU55 N028 N001 N033 A10
XU56 N029 N002 N034 A10
XU57 N030 N003 N035 A10
XU58 N031 N004 N036 A10
XU59 N032 N005 N037 A10
XU61 N039 N001 N044 A10
XU62 N040 N002 N045 A10
XU63 N041 N003 N046 A10
XU64 N042 N004 N047 A10
XU65 N043 N005 N048 A10
R8 N011 N016 1G
R9 N012 N016 1G
R10 N013 N016 1G
R11 N014 N016 1G
R12 N015 N016 1G
R14 N022 N027 1G
R15 N023 N027 1G
R16 N024 N027 1G
R17 N025 N027 1G
R18 N026 N027 1G
R20 N033 N038 1G
R21 N034 N038 1G
R22 N035 N038 1G
R23 N036 N038 1G
R24 N037 N038 1G
R26 N044 0 1G
R27 N045 0 1G
R28 N046 0 1G
R29 N047 0 1G
R30 N048 0 1G
V1 N006 N016 PWL(0 0 0.1u 0.6 9.9u 0.6 10u 0.1 20u 0.1 20.1u -0.6 29.9u -0.6 30u 0.1 39.9u 0.1 40u 0.6 49.9u 0.6 50u 0.1 59.9u 0.1 60u -0.6 69.9u -0.6 70u 0.1 79.9u 0.1 80u 0.6 89.9u 0.6 90u 0.1 100u 0.1)
R1 N001 0 4
R2 N002 0 4
R3 N003 0 4
R4 N004 0 4
R5 N005 0 4
R6 N007 N006 1
R7 N008 N007 1
R13 N009 N008 1
R19 N010 N009 1
R31 N018 N017 1
R32 N019 N018 1
R33 N020 N019 1
R34 N021 N020 1
R36 N029 N028 1
R37 N030 N029 1
R38 N031 N030 1
R39 N032 N031 1
R41 N040 N039 1
R43 N041 N040 1
R44 N042 N041 1
R45 N043 N042 1
V2 N017 N027 PWL(0 0 0.1u 0.6 9.9u 0.6 10u 0.1 20u 0.1 20.1u -0.6 29.9u -0.6 30u 0.1 39.9u 0.1 40u 0.6 49.9u 0.6 50u 0.1 59.9u 0.1 60u -0.6 69.9u -0.6 70u 0.1 79.9u 0.1 80u 0.6 89.9u 0.6 90u 0.1 100u 0.1)
V3 N028 N038 PWL(0 0 0.1u 0.6 9.9u 0.6 10u 0.1 20u 0.1 20.1u -0.6 29.9u -0.6 30u 0.1 39.9u 0.1 40u 0.6 49.9u 0.6 50u 0.1 59.9u 0.1 60u -0.6 69.9u -0.6 70u 0.1 79.9u 0.1 80u 0.6 89.9u 0.6 90u 0.1 100u 0.1)
V4 N039 0 PWL(0 0 0.1u 0.6 9.9u 0.6 10u 0.1 20u 0.1 20.1u -0.6 29.9u -0.6 30u 0.1 39.9u 0.1 40u 0.6 49.9u 0.6 50u 0.1 59.9u 0.1 60u -0.6 69.9u -0.6 70u 0.1 79.9u 0.1 80u 0.6 89.9u 0.6 90u 0.1 100u 0.1)
.tran 0 100u 0 200p
.lib C:\Users\PC-Admin\OneDrive - Technical University of Sofia\Desktop\Advanced-Memristor-Modeling-in-LTSpise-main\Advanced-Memristor-Modeling-in-LTSpise-main\Modified Memristor Models\Modified model A10
.backanno
.end
